[General]
network = Network
sim-time-limit = 10s


# CLIENT SIDE
**.client1.numApps = 1
**.client1.app[0].typename = "TcpSessionApp"
**.client1.app[0].connectAddress = "server"
**.client1.app[0].connectPort = 1000
**.client1.app[0].sendBytes = 1MB

**.client2.numApps = 1
**.client2.app[0].typename = "TcpSessionApp"
**.client2.app[0].connectAddress = "server"
**.client2.app[0].connectPort = 1001
**.client2.app[0].sendBytes = 1MB

**.client3.numApps = 1
**.client3.app[0].typename = "TcpSessionApp"
**.client3.app[0].connectAddress = "server"
**.client3.app[0].connectPort = 1002
**.client3.app[0].sendBytes = 1MB

**.client4.numApps = 1
**.client4.app[0].typename = "TcpSessionApp"
**.client4.app[0].connectAddress = "server"
**.client4.app[0].connectPort = 1003
**.client4.app[0].sendBytes = 1MB

# SERVER SIDE
**.server.numApps = 4 # number of applications on server (one per port)
**.server.app[0].typename = "TcpEchoApp" # server application type to handle client1's data
**.server.app[0].localPort = 1000 # TCP server listen port for client1

**.server.app[1].typename = "TcpEchoApp" # server application type to handle client2's data
**.server.app[1].localPort = 1001 # TCP server listen port for client2

**.server.app[2].typename = "TcpEchoApp" # server application type to handle client3's data
**.server.app[2].localPort = 1002 # TCP server listen port for client3

**.server.app[3].typename = "TcpEchoApp" # server application type to handle client4's data
**.server.app[3].localPort = 1003 # TCP server listen port for client4
